LTspice 24.0.12 for Windows
Circuit: * Z:\home\nelson\Projects\TeensyDataAcquistion\SPI_Instrumenation_Project\Instrumentation_Input_SPI\Simulations\InstrumentationAmp_ADA4510_LT1994_4.3Vsupply.asc
Start Time: Thu Jan 30 14:49:30 2025
solver = Normal
Maximum thread count: 4
tnom = 27
temp = 27
method = modified trap
Per .tran options, skipping operating point for transient analysis.
Changing Tseed to 1.5625e-12
Changing Tseed to 1.5625e-14
Changing Tseed to 1.5625e-11
Changing Tseed to 1.5625e-15
Changing Tseed to 1.5625e-10
Changing Tseed to 1.5625e-16
Heightened Def Con from 2.001e-06 to 2.00175e-06
Heightened Def Con from 2.303e-06 to 2.30325e-06
Heightened Def Con from 4.001e-06 to 4.00175e-06
Heightened Def Con from 6.001e-06 to 6.00175e-06
Heightened Def Con from 6.303e-06 to 6.30325e-06
Heightened Def Con from 7.303e-06 to 7.30325e-06
Heightened Def Con from 1.1303e-05 to 1.13032e-05
Heightened Def Con from 1.3303e-05 to 1.33032e-05
Heightened Def Con from 1.5303e-05 to 1.53032e-05
Total elapsed time: 0.960 seconds.

